*INCLUDE, INPUT=meshsolid.inp
*NSET, NSET=FIX
	293,	294,	295,	296,	297,	298,	299,	300,	301,	302,	
	303,	304,	305,	306,	307,	308,	309,	310,	311,	312,	
	313,	314,	315,	316,	317,	318,	319,	320,	321,	322,	
	323,	324,	325,	326,	327,	328,	329,	334,	335,	341,	
	390,	397,	401,	402,	404,	407,	408,	409,	414,	417,	
	427,	428,	429,	438,	439,	440,	441,	442,	443,	444,	
	445,	446,	447,	448,	833,	834,	835,	836,	837,	838,	
	839,	840,	841,	842,	843,	844,	845,	846,	847,	848,	
	849,	850,	851,	852,	853,	854,	855,	856,	857,	858,	
	859,	860,	861,	862,	863,	864,	865,	866,	867,	868,	
	869,	870,	871,	872,	873,	874,	875,	876,	877,	878,	
	879,	880,	881,	882,	883,	884,	885,	886,	887,	888,	
	889,	890,	891,	892,	893,	894,	895,	896,	1098,	1099,	
	1100,	1101,	1102,	1103,	1104,	1105,	1106,	1107,	1108,	1109,	
	1110,	1111,	1112,	1113,	1114,	1115,	1116,	1117,	1118,	1119,	
	1120,	1121,	1122,	1123,	1124,	1125,	1126,	1127,	1128,	1129,	
	1130,	1131,	1132,	1133,	1134,	1135,	1136,	1137,	1138,	1139,	
	1140,	1141,	1142,	1143,	1144,	1145,	1146,	1147,	1148,	1149,	
	1150,	1151,	1152,	1336,	1337,	1338,	1339,	1340,	1341,	1342,	
	1343,	1344,	1345,	1346,	1347,	1348,	1349,	1350,	1351,	1352,	
** ... 9 like lines cut
*BOUNDARY 
FIX, 1
*BOUNDARY 
FIX, 2
*BOUNDARY 
FIX, 3
*NSET, NSET=Nall, GENERATE
1,9558
*MATERIAL, NAME=PDMS
*ELASTIC 
1000.0,	0.3
*SOLID SECTION, ELSET=Volume0, MATERIAL=PDMS
*NSET, NSET=LOAD294
294
*NSET, NSET=LOAD295
295
*NSET, NSET=LOAD296
296
*NSET, NSET=LOAD298
298
*NSET, NSET=LOAD300
300
*NSET, NSET=LOAD303
303
*NSET, NSET=LOAD305
305
*NSET, NSET=LOAD307
307
*NSET, NSET=LOAD309
309
*NSET, NSET=LOAD310
310
*NSET, NSET=LOAD312
312
*NSET, NSET=LOAD313
313
*NSET, NSET=LOAD316
316
*NSET, NSET=LOAD317
317
*NSET, NSET=LOAD318
318
*NSET, NSET=LOAD319
319
*NSET, NSET=LOAD320
320
*NSET, NSET=LOAD321
321
*NSET, NSET=LOAD322
322
*NSET, NSET=LOAD323
323
** ... 2112 like lines cut
**
*STEP
*STATIC
*CLOAD
LOAD294, 3, -0.0793736398211
LOAD295, 3, -0.0709324592226
LOAD296, 3, -0.155974592479
LOAD298, 3, -0.0566300859147
LOAD300, 3, -0.0642285394507
LOAD303, 3, -0.0663670334419
LOAD305, 3, -0.0617102157394
LOAD307, 3, -0.177489204193
LOAD309, 3, -0.0486662162895
LOAD310, 3, -0.0638579095278
LOAD312, 3, -0.16378430412
LOAD313, 3, -0.0780950325846
LOAD316, 3, -0.106580343375
LOAD317, 3, -0.0768339796796
LOAD318, 3, -0.128137834701
LOAD319, 3, -0.131181608755
LOAD320, 3, -0.0723973663468
LOAD321, 3, -0.0876313518946
LOAD322, 3, -0.0647296067003
LOAD323, 3, -0.100278778277
** ... 1056 like lines cut
*NODE PRINT, NSET=Nall
U
*EL PRINT, ELSET=Volume0
S
*NODE FILE
U
*EL FILE
S
*END STEP
