*INCLUDE, INPUT=meshsolid.inp
*NSET, NSET=FIX
	289,	290,	291,	292,	293,	294,	295,	296,	297,	298,	
	299,	300,	301,	302,	303,	304,	305,	306,	307,	308,	
	309,	310,	311,	312,	313,	314,	315,	316,	317,	318,	
	319,	320,	321,	322,	323,	324,	325,	326,	327,	358,	
	359,	362,	365,	373,	374,	377,	379,	382,	389,	392,	
	393,	397,	421,	430,	431,	440,	441,	442,	443,	444,	
	445,	446,	447,	448,	833,	834,	835,	836,	837,	838,	
	839,	840,	841,	842,	843,	844,	845,	846,	847,	848,	
	849,	850,	851,	852,	853,	854,	855,	856,	857,	858,	
	859,	860,	861,	862,	863,	864,	865,	866,	867,	868,	
	869,	870,	871,	872,	873,	874,	875,	876,	877,	878,	
	879,	880,	881,	882,	883,	884,	885,	886,	887,	888,	
	889,	890,	891,	892,	893,	894,	895,	896,	1073,	1074,	
	1075,	1076,	1077,	1078,	1079,	1080,	1081,	1082,	1083,	1084,	
	1085,	1086,	1087,	1088,	1089,	1090,	1091,	1092,	1093,	1094,	
	1095,	1096,	1097,	1098,	1099,	1100,	1101,	1102,	1103,	1104,	
	1105,	1106,	1107,	1108,	1109,	1110,	1111,	1112,	1113,	1114,	
	1115,	1116,	1117,	1118,	1119,	1120,	1121,	1122,	1123,	1124,	
	1125,	1126,	1127,	1128,	1129,	1130,	1339,	1340,	1341,	1342,	
	1343,	1344,	1345,	1346,	1347,	1348,	1349,	1350,	1351,	1352,	
** ... 6 like lines cut
*BOUNDARY 
FIX, 1
*BOUNDARY 
FIX, 2
*BOUNDARY 
FIX, 3
*NSET, NSET=Nall, GENERATE
1,12252
*MATERIAL, NAME=PDMS
*ELASTIC 
1100.0,	0.421
*SOLID SECTION, ELSET=Volume0, MATERIAL=PDMS
*NSET, NSET=LOAD289
289
*NSET, NSET=LOAD291
291
*NSET, NSET=LOAD292
292
*NSET, NSET=LOAD294
294
*NSET, NSET=LOAD296
296
*NSET, NSET=LOAD298
298
*NSET, NSET=LOAD300
300
*NSET, NSET=LOAD302
302
*NSET, NSET=LOAD305
305
*NSET, NSET=LOAD309
309
*NSET, NSET=LOAD310
310
*NSET, NSET=LOAD311
311
*NSET, NSET=LOAD312
312
*NSET, NSET=LOAD313
313
*NSET, NSET=LOAD314
314
*NSET, NSET=LOAD315
315
*NSET, NSET=LOAD316
316
*NSET, NSET=LOAD317
317
*NSET, NSET=LOAD318
318
*NSET, NSET=LOAD319
319
** ... 1108 like lines cut
**
*STEP
*STATIC
*CLOAD
LOAD289, 3, -0.573541534399
LOAD291, 3, -0.400331466191
LOAD292, 3, -0.186702629125
LOAD294, 3, -0.23056738618
LOAD296, 3, -0.501409360493
LOAD298, 3, -0.603571972572
LOAD300, 3, -0.449296186684
LOAD302, 3, -0.623679905973
LOAD305, 3, -0.489916553892
LOAD309, 3, -0.197312618679
LOAD310, 3, -0.258308121468
LOAD311, 3, -0.456309855026
LOAD312, 3, -0.275745080072
LOAD313, 3, -0.209485929183
LOAD314, 3, -0.316985425662
LOAD315, 3, -0.316985425662
LOAD316, 3, -0.275745080072
LOAD317, 3, -0.606270019014
LOAD318, 3, -0.247798165842
LOAD319, 3, -0.211788891221
** ... 554 like lines cut
*NODE PRINT, NSET=Nall
U
*EL PRINT, ELSET=Volume0
S
*NODE FILE
U
*EL FILE
S
*END STEP
