*INCLUDE, INPUT=meshsolid.inp
*NSET, NSET=FIX
	301,	302,	303,	304,	305,	306,	307,	308,	309,	310,	
	311,	312,	313,	314,	315,	316,	317,	318,	319,	320,	
	321,	322,	323,	324,	325,	326,	327,	328,	329,	337,	
	339,	340,	347,	350,	403,	412,	415,	417,	418,	419,	
	424,	426,	431,	432,	438,	439,	444,	445,	457,	458,	
	459,	460,	461,	462,	463,	464,	465,	466,	467,	468,	
	469,	470,	471,	472,	881,	882,	883,	884,	885,	886,	
	887,	888,	889,	890,	891,	892,	893,	894,	895,	896,	
	897,	898,	899,	900,	901,	902,	903,	904,	905,	906,	
	907,	908,	909,	910,	911,	912,	913,	914,	915,	916,	
	917,	918,	919,	920,	921,	922,	923,	924,	925,	926,	
	927,	928,	929,	930,	931,	932,	933,	934,	935,	936,	
	937,	938,	939,	940,	941,	942,	943,	944,	1067,	1068,	
	1069,	1070,	1071,	1072,	1073,	1074,	1075,	1076,	1077,	1078,	
	1079,	1080,	1081,	1082,	1083,	1084,	1085,	1086,	1087,	1088,	
	1089,	1090,	1091,	1092,	1093,	1094,	1095,	1096,	1097,	1098,	
	1099,	1100,	1101,	1102,	1103,	1104,	1105,	1106,	1107,	1108,	
	1109,	1110,	1111,	1112,	1113,	1114,	1115,	1116,	1117,	1118,	
	1119,	1120,	1121,	1122,	1123,	1274,	1275,	1276,	1277,	1278,	
	1279,	1280,	1281,	1282,	1283,	1284,	1285,	1286,	1287,	1288,	
** ... 8 like lines cut
*BOUNDARY 
FIX, 1
*BOUNDARY 
FIX, 2
*BOUNDARY 
FIX, 3
*NSET, NSET=Nall, GENERATE
1,8164
*MATERIAL, NAME=PDMS
*ELASTIC 
1000.0,	0.3
*SOLID SECTION, ELSET=Volume0, MATERIAL=PDMS
*NSET, NSET=LOAD302
302
*NSET, NSET=LOAD304
304
*NSET, NSET=LOAD305
305
*NSET, NSET=LOAD307
307
*NSET, NSET=LOAD309
309
*NSET, NSET=LOAD310
310
*NSET, NSET=LOAD311
311
*NSET, NSET=LOAD312
312
*NSET, NSET=LOAD313
313
*NSET, NSET=LOAD314
314
*NSET, NSET=LOAD315
315
*NSET, NSET=LOAD316
316
*NSET, NSET=LOAD317
317
*NSET, NSET=LOAD318
318
*NSET, NSET=LOAD319
319
*NSET, NSET=LOAD320
320
*NSET, NSET=LOAD321
321
*NSET, NSET=LOAD322
322
*NSET, NSET=LOAD323
323
*NSET, NSET=LOAD325
325
** ... 2014 like lines cut
**
*STEP
*STATIC
*CLOAD
LOAD302, 3, 0.0519782152763
LOAD304, 3, -0.0108531838628
LOAD305, 3, -0.00145301416153
LOAD307, 3, -0.0304738030981
LOAD309, 3, -0.113145543771
LOAD310, 3, 0.0167557535929
LOAD311, 3, -0.0342848303243
LOAD312, 3, -0.0836083649
LOAD313, 3, -0.0436013354988
LOAD314, 3, -0.082547238326
LOAD315, 3, -0.0376447627226
LOAD316, 3, -0.0648670222174
LOAD317, 3, 0.0311817139501
LOAD318, 3, 0.0229321010208
LOAD319, 3, 0.0299823058935
LOAD320, 3, 0.0778272607493
LOAD321, 3, 0.176771863749
LOAD322, 3, 0.156006220847
LOAD323, 3, 0.0899416602236
LOAD325, 3, -0.0677402332557
** ... 1007 like lines cut
*NODE PRINT, NSET=Nall
U
*EL PRINT, ELSET=Volume0
S
*NODE FILE
U
*EL FILE
S
*END STEP
